@<TRIPOS>MOLECULE
****
45 48 1 0 0
SMALL
USER_CHARGES


@<TRIPOS>ATOM
      1 C          -4.5869   -0.5256   -0.2009 C.2       1     ****    0.0000
      2 C          -4.9657    0.7723   -0.3663 C.2       1     ****    0.0000
      3 C          -5.4709   -1.5314   -0.4340 C.ar      1     ****    0.0000
      4 C          -3.3038   -0.8645    0.0980 C.ar      1     ****    0.0000
      5 C          -3.9505    1.8310   -0.8002 C.3       1     ****    0.0000
      6 C          -6.2366    1.2040   -0.1992 C.ar      1     ****    0.0000
      7 C          -5.4201   -2.6959    0.2465 C.ar      1     ****    0.0000
      8 C          -6.2868   -3.6951    0.0199 C.ar      1     ****    0.0000
      9 C          -7.2502   -3.5889   -0.9081 C.ar      1     ****    0.0000
     10 C          -7.3076   -2.4391   -1.5980 C.ar      1     ****    0.0000
     11 C          -6.4412   -1.4400   -1.3678 C.ar      1     ****    0.0000
     12 C          -2.5010   -0.1017    0.8675 C.ar      1     ****    0.0000
     13 C          -1.2353   -0.4416    1.1569 C.ar      1     ****    0.0000
     14 C          -0.6893   -1.5729    0.6854 C.ar      1     ****    0.0000
     15 C          -1.4707   -2.3445   -0.0850 C.ar      1     ****    0.0000
     16 C          -2.7371   -1.9998   -0.3660 C.ar      1     ****    0.0000
     17 N          -3.8288    2.9678    0.1325 N.ar      1     ****    0.0000
     18 C          -4.2230    3.0096    1.3358 C.ar      1     ****    0.0000
     19 N          -3.9653    4.1421    1.8406 N.ar      1     ****    0.0000
     20 C          -3.3994    4.7993    0.9153 C.ar      1     ****    0.0000
     21 C          -3.2955    4.0658   -0.2031 C.ar      1     ****    0.0000
     22 O          -8.1319   -4.5974   -1.1425 O.3       1     ****    0.0000
     23 O           0.5925   -1.9279    0.9690 O.3       1     ****    0.0000
     24 C          -7.2950    0.5963    0.3664 C.ar      1     ****    0.0000
     25 O          -8.3073    1.2947    0.3778 O.2       1     ****    0.0000
     26 C          -8.0256    2.3743   -0.1330 C.ar      1     ****    0.0000
     27 C          -6.7446    2.4089   -0.5148 C.ar      1     ****    0.0000
     28 H          -2.9426    1.4201   -1.0265 H         1     ****    0.0000
     29 H          -4.2881    2.2034   -1.7971 H         1     ****    0.0000
     30 H          -4.6851   -2.8547    1.0548 H         1     ****    0.0000
     31 H          -6.2167   -4.6221    0.6141 H         1     ****    0.0000
     32 H          -8.0776   -2.3218   -2.3795 H         1     ****    0.0000
     33 H          -6.5334   -0.5493   -2.0127 H         1     ****    0.0000
     34 H          -2.8728    0.8197    1.3374 H         1     ****    0.0000
     35 H          -0.6288    0.2130    1.8060 H         1     ****    0.0000
     36 H          -1.0535   -3.2752   -0.5057 H         1     ****    0.0000
     37 H          -3.2789   -2.6790   -1.0466 H         1     ****    0.0000
     38 H          -4.7170    2.1871    1.8637 H         1     ****    0.0000
     39 H          -3.0528    5.8325    1.0461 H         1     ****    0.0000
     40 H          -2.8742    4.2932   -1.1867 H         1     ****    0.0000
     41 H          -8.7601   -4.3171   -1.8275 H         1     ****    0.0000
     42 H           0.7881   -2.7754    0.5376 H         1     ****    0.0000
     43 H          -7.4024   -0.3817    0.8503 H         1     ****    0.0000
     44 H          -8.8162    3.1303   -0.1964 H         1     ****    0.0000
     45 H          -6.2525    3.2655   -0.9898 H         1     ****    0.0000
@<TRIPOS>BOND
     1     1     2     2
     2     1     3     1
     3     1     4     1
     4     2     5     1
     5     2     6     1
     6     3     7     1
     7     3    11     2
     8     4    12     1
     9     4    16     2
    10     5    17     1
    11     5    28     1
    12     5    29     1
    13     6    24     2
    14     6    27     1
    15     7     8     2
    16     7    30     1
    17     8     9     1
    18     8    31     1
    19     9    10     2
    20     9    22     1
    21    10    11     1
    22    10    32     1
    23    11    33     1
    24    12    13     2
    25    12    34     1
    26    13    14     1
    27    13    35     1
    28    14    15     2
    29    14    23     1
    30    15    16     1
    31    15    36     1
    32    16    37     1
    33    17    18     1
    34    17    21     1
    35    18    19     2
    36    18    38     1
    37    19    20     1
    38    20    21     2
    39    20    39     1
    40    21    40     1
    41    22    41     1
    42    23    42     1
    43    24    25     1
    44    24    43     1
    45    25    26     1
    46    26    27     2
    47    26    44     1
    48    27    45     1
