REMARK  7 active torsions:
REMARK  status: ('A' for Active; 'I' for Inactive)
REMARK    1  A    between atoms: C_1  and  C_3 
REMARK    2  A    between atoms: C_1  and  C_4 
REMARK    3  A    between atoms: C_2  and  C_5 
REMARK    4  A    between atoms: C_2  and  C_6 
REMARK    5  A    between atoms: C_5  and  N_17 
REMARK    6  A    between atoms: C_9  and  O_22 
REMARK    7  A    between atoms: C_14  and  O_23 
ROOT
HETATM    1  C   ***     1     -10.575  49.473 332.701  1.00  0.00    -0.007 C 
HETATM    2  C   ***     1     -11.669  49.062 332.002  1.00  0.00    -0.016 C 
ENDROOT
BRANCH   1   3
HETATM    3  C   ***     1      -9.341  49.001 332.380  1.00  0.00    -0.024 A 
HETATM    4  C   ***     1      -8.375  48.845 333.310  1.00  0.00     0.015 A 
HETATM    5  C   ***     1      -7.153  48.383 333.001  1.00  0.00     0.037 A 
HETATM    6  C   ***     1      -6.826  48.058 331.741  1.00  0.00     0.065 A 
HETATM    7  C   ***     1      -7.775  48.216 330.805  1.00  0.00     0.037 A 
HETATM    8  C   ***     1      -8.997  48.675 331.117  1.00  0.00     0.015 A 
BRANCH   6   9
HETATM    9  O   ***     1      -5.590  47.589 331.421  1.00  0.00    -0.361 OA
HETATM   10  H   ***     1      -5.562  47.390 330.471  1.00  0.00     0.217 HD
ENDBRANCH   6   9
ENDBRANCH   1   3
BRANCH   1  11
HETATM   11  C   ***     1     -10.657  50.432 333.662  1.00  0.00    -0.024 A 
HETATM   12  C   ***     1      -9.656  51.312 333.882  1.00  0.00     0.015 A 
HETATM   13  C   ***     1      -9.726  52.268 334.822  1.00  0.00     0.037 A 
HETATM   14  C   ***     1     -10.805  52.401 335.607  1.00  0.00     0.065 A 
HETATM   15  C   ***     1     -11.810  51.535 335.404  1.00  0.00     0.037 A 
HETATM   16  C   ***     1     -11.734  50.585 334.459  1.00  0.00     0.015 A 
BRANCH  14  17
HETATM   17  O   ***     1     -10.870  53.370 336.559  1.00  0.00    -0.361 OA
HETATM   18  H   ***     1     -10.045  53.882 336.545  1.00  0.00     0.217 HD
ENDBRANCH  14  17
ENDBRANCH   1  11
BRANCH   2  19
HETATM   19  C   ***     1     -12.870  49.991 331.818  1.00  0.00     0.169 C 
BRANCH  19  20
HETATM   20  N   ***     1     -14.144  49.436 332.314  1.00  0.00    -0.346 N 
HETATM   21  C   ***     1     -14.289  48.460 333.109  1.00  0.00     0.209 A 
HETATM   22  N   ***     1     -15.520  48.247 333.317  1.00  0.00    -0.255 NA
HETATM   23  C   ***     1     -16.132  49.119 332.630  1.00  0.00     0.135 A 
HETATM   24  C   ***     1     -15.268  49.905 331.969  1.00  0.00     0.111 A 
ENDBRANCH  19  20
ENDBRANCH   2  19
BRANCH   2  25
HETATM   25  C   ***     1     -11.760  47.851 331.405  1.00  0.00    -0.003 A 
HETATM   26  C   ***     1     -10.997  46.752 331.545  1.00  0.00     0.153 A 
HETATM   27  O   ***     1     -11.383  45.803 330.865  1.00  0.00    -0.334 OA
HETATM   28  C   ***     1     -12.390  46.158 330.260  1.00  0.00     0.142 A 
HETATM   29  C   ***     1     -12.705  47.426 330.547  1.00  0.00     0.038 A 
ENDBRANCH   2  25
TORSDOF 7
